54
arachidonic.pdb
  O        5.54600       12.67500       12.19500
  C        5.51400       13.81800       11.81600
  O        4.36700       14.53600       11.91500
  H        4.51000       15.42500       11.57300
  C        6.67700       14.58900       11.20600
  H        6.36700       14.93500       10.20100
  H        6.82700       15.51100       11.80000
  C        7.97700       13.78300       11.12200
  H        7.79800       12.86600       10.53300
  H        8.26000       13.44700       12.13600
  C        9.15200       14.55900       10.50900
  H        8.90300       14.87800        9.47900
  H        9.32000       15.48100       11.08300
  C       10.39000       13.69100       10.46100
  H       10.32100       12.84400        9.77300
  H       12.32400       13.09800       10.98800
  C       11.53000       13.83400       11.15300
  C       11.87900       14.89900       12.17200
  H       11.07300       15.63900       12.28600
  H       12.75000       15.45800       11.80000
  C       12.14000       14.27900       13.53000
  H       11.28400       13.73200       13.94000
  H       13.26000       13.81000       15.22900
  C       13.26100       14.32400       14.26200
  C       14.57200       15.00600       13.92900
  H       14.52600       15.54100       12.96900
  H       14.75900       15.77800       14.69200
  C       15.70200       14.00000       13.85400
  H       15.56500       13.23400       13.08200
  H       17.52200       13.13200       14.39800
  C       16.81300       13.94200       14.60000
  C       17.24100       14.86600       15.72100
  H       16.52700       15.69100       15.87100
  H       18.18900       15.34100       15.42700
  C       17.36800       14.11000       17.02700
  H       16.43700       13.64400       17.36500
  C       18.46200       13.94600       17.78600
  H       18.35800       13.35400       18.70000
  C       19.85700       14.48000       17.54600
  H       19.88600       15.19500       16.71200
  H       20.18200       15.04000       18.44200
  C       20.83000       13.32600       17.26200
  H       20.47600       12.76700       16.37700
  H       20.80800       12.61100       18.10500
  C       22.28600       13.76300       17.02100
  H       22.31800       14.47100       16.17400
  H       22.65100       14.31900       17.90400
  C       23.23800       12.58800       16.73400
  H       23.21000       11.87900       17.58100
  C       24.68600       13.03200       16.49500
  H       24.75300       13.71500       15.63200
  H       25.34200       12.17100       16.29200
  H       25.08800       13.56100       17.37400
  H       22.87700       12.03200       15.85100
