24
btal.pdb
  C        0.00000        0.00000        0.00000
  H       -0.23100        0.59400        0.93400
  O       -0.40300       -1.32500        0.10700
  H        0.03600       -1.75600       -0.67900
  C       -0.24400        2.08300       -1.16500
  H       -0.55400        2.61900       -0.23700
  O       -0.63100        0.68000       -1.06200
  C        1.56200        0.00000        0.00000
  H        1.91300       -0.61900        0.85400
  O        2.12700       -0.70200       -1.13400
  H        2.05900       -0.17800       -1.96100
  C        2.07700        1.47200        0.00000
  H        1.78300        1.97200        0.94900
  O        3.52700        1.56400       -0.00900
  H        3.93500        1.03600       -0.67800
  C        1.39600        2.18000       -1.20500
  H        1.75200        3.18100       -0.97700
  O        2.01300        1.70600       -2.42500
  H        1.52400        2.02700       -3.19200
  C       -0.92600        2.70300       -2.38400
  H       -2.02300        2.49400       -2.32700
  H       -0.70500        3.73500       -2.37400
  O       -0.44000        2.18300       -3.62900
  H       -0.84200        1.31300       -3.86800
