24
l_glucose.pdb
  C        3.33700        1.77400       -7.98200
  O        4.70200        1.67900       -8.46300
  C        5.22700        0.33800       -8.67800
  O        6.53200        0.43600       -9.14800
  C        4.34500       -0.41200       -9.70500
  O        4.77600       -1.74800       -9.81700
  C        2.85400       -0.37200       -9.29300
  O        2.06300       -0.92500      -10.31500
  C        2.36700        1.06500       -8.97600
  O        1.06200        1.00900       -8.45000
  C        3.01800        3.28100       -7.76600
  O        1.77800        3.45600       -7.11500
  H        3.27100        1.27400       -6.99700
  H        5.22700       -0.20800       -7.71900
  H        6.50700        0.93100       -9.98900
  H        4.45200        0.07800      -10.69400
  H        4.20800       -2.17700      -10.48400
  H        2.72700       -0.98700       -8.38000
  H        1.13900       -0.90700      -10.00200
  H        2.34300        1.64500       -9.92100
  H        0.77900        1.92600       -8.28700
  H        3.80500        3.73500       -7.15400
  H        3.01400        3.80900       -8.72400
  H        1.65400        4.40100       -7.00800
