45
11aa.pdb
  C        1.47600        0.00000        0.00000
  H        1.82700       -0.43300       -0.97100
  O        1.92000       -0.66400        1.15900
  C       -0.53900        0.80000        1.01700
  H       -0.27600        0.33900        2.00500
  O        0.00000        0.00000        0.00000
  C        2.07300        1.43200        0.00000
  H        1.67800        1.90900       -0.86800
  O        3.48000        1.55500       -0.21800
  H        3.99400        1.01100        0.31300
  C        1.52400        2.30700        1.07200
  H        1.88100        1.95900        2.07700
  O        1.94500        3.63500        0.84100
  H        2.81200        3.53300        0.36100
  C       -0.00400        2.21000        1.06600
  H       -0.36900        2.78600        0.16400
  O       -0.38100        2.81100        2.29700
  H       -0.01700        3.70600        2.35900
  C       -2.01000        0.76700        1.01000
  H       -2.42300        1.33900        1.93000
  H       -2.52000        1.29900        0.18500
  O       -2.46200       -0.53800        1.12200
  H       -2.72300       -0.85100        0.24600
  C        2.41800       -1.98500        1.10100
  H        2.31200       -2.43700        0.11500
  C        4.20500       -1.39000        2.50800
  H        3.86300       -0.32300        2.55900
  O        3.86300       -1.91600        1.20000
  C        1.73400       -2.80400        2.12500
  H        2.22700       -3.74900        2.16400
  O        0.39100       -3.21100        1.84900
  H       -0.16300       -2.52900        1.58400
  C        2.02100       -2.28400        3.48900
  H        1.54900       -1.27500        3.62800
  O        1.51400       -3.19200        4.44400
  H        0.74600       -3.62600        3.98000
  C        3.53400       -2.11000        3.65100
  H        3.97700       -3.14500        3.76100
  O        3.65500       -1.32900        4.83200
  H        3.20100       -1.76000        5.57000
  C        5.66000       -1.28100        2.70000
  H        5.88700       -0.76300        3.71200
  H        6.22200       -2.22700        2.81800
  O        6.21700       -0.48400        1.71500
  H        6.62300       -1.05400        1.04800
