24
bdgl.pdb
  C        3.33700        1.77400       -8.94400
  H        3.27100        1.27400       -9.92900
  O        4.70200        1.67900       -8.46300
  C        5.22700        0.33800       -8.24800
  H        5.22700       -0.20800       -9.20700
  O        6.53200        0.43600       -7.77900
  H        6.50700        0.93100       -6.93700
  C        4.34500       -0.41200       -7.22200
  H        4.45200        0.07800       -6.23300
  O        4.77600       -1.74800       -7.10900
  H        4.20800       -2.17700       -6.44200
  C        2.85400       -0.37200       -7.63300
  H        2.72700       -0.98700       -8.54600
  O        2.06300       -0.92500       -6.61100
  H        1.13900       -0.90700       -6.92500
  C        2.36700        1.06500       -7.95000
  H        2.34300        1.64500       -7.00600
  O        1.06200        1.00900       -8.47600
  H        0.77900        1.92600       -8.64000
  C        3.01800        3.28100       -9.16000
  H        3.80500        3.73500       -9.77200
  O        1.77800        3.45600       -9.81100
  H        1.65400        4.40100       -9.91800
  H        3.01400        3.80900       -8.20200
