74
cholesterol.pdb
  C        0.70400       -2.00500       -4.24900
  C        1.34900       -2.74100       -5.43200
  C        2.61000       -2.01400       -5.87700
  C        3.60300       -1.90500       -4.73000
  C        2.96500       -1.23200       -3.53200
  C        3.59900       -0.22000       -2.91900
  C        3.08700        0.50700       -1.70900
  C        1.95600       -0.24800       -0.99600
  C        0.96200       -0.80000       -2.04000
  C        1.64000       -1.79900       -3.03000
  C       -0.32800       -1.33000       -1.37700
  C       -0.95400       -0.36600       -0.35200
  C        0.05100        0.03300        0.74800
  C        1.23100        0.68200       -0.01200
  C        2.06400        1.34500        1.08500
  C        0.99800        1.83300        2.08400
  C       -0.36400        1.21400        1.66900
  C        0.46300       -1.18500        1.60100
  C        1.93200       -3.15800       -2.35600
  C       -1.30100        0.97900        2.88400
  C       -2.62600        0.30700        2.48900
  C       -1.56300        2.32000        3.61700
  C       -2.48700        2.25600        4.85000
  C       -3.93200        2.69700        4.55500
  C       -4.87000        2.65400        5.77900
  C       -5.11700        1.21800        6.27300
  C       -6.21500        3.32000        5.43600
  H        3.89000       -2.19900       -7.30500
  O        3.20900       -2.74100       -6.94400
  H        3.96200       -2.91600       -4.43300
  H        4.50500       -1.35300       -5.08400
  H        2.35800       -1.00600       -6.28000
  H        1.59000       -3.79400       -5.15400
  H        0.62900       -2.80000       -6.28300
  H        0.36300       -1.01200       -4.62700
  H       -0.21300       -2.56200       -3.94700
  H        4.55900        0.14400       -3.32600
  H        3.93300        0.66700       -1.00000
  H        2.74500        1.51100       -2.05500
  H        2.56700       -3.05200       -1.45000
  H        2.46900       -3.86600       -3.02200
  H        1.00500       -3.69500       -2.06100
  H        0.64600        0.09600       -2.63500
  H        2.40800       -1.09200       -0.42700
  H       -1.09700       -1.55000       -2.15500
  H       -0.13400       -2.29600       -0.86300
  H       -1.32200        0.54000       -0.88900
  H       -1.85600       -0.85000        0.08000
  H        0.82100        1.52600       -0.62700
  H        1.14400       -0.91400        2.43600
  H        0.98800       -1.97600        1.02600
  H       -0.42100       -1.67900        2.05800
  H       -0.88600        1.95600        1.01200
  H        1.29700        1.51600        3.11000
  H        0.94000        2.94800        2.08300
  H        2.74300        0.59400        1.55200
  H        2.69900        2.17600        0.70200
  H       -0.78400        0.29900        3.60600
  H       -2.47800       -0.71600        2.08700
  H       -3.17800        0.91000        1.73300
  H       -3.29200        0.14400        3.36300
  H       -0.58400        2.72300        3.96900
  H       -1.95500        3.07300        2.89500
  H       -2.44200        1.23700        5.29500
  H       -2.09400        2.94200        5.64000
  H       -4.18700        0.73700        6.64600
  H       -5.53200        0.57800        5.46200
  H       -5.84100        1.20300        7.11900
  H       -3.89800        3.74600        4.17200
  H       -4.37700        2.08600        3.73800
  H       -4.40000        3.23900        6.60900
  H       -6.07800        4.37900        5.11900
  H       -6.89900        3.33100        6.31500
  H       -6.73300        2.78300        4.61000
