111
dppc.pdb
  P       -9.00900       -0.88800       -1.97100
  N      -10.20200        3.29100       -1.15000
  O       -7.55100       -1.37400       -1.46200
  O       -9.22000        0.46400       -1.08700
  O      -10.05700       -1.76500       -1.42800
  O       -8.93500       -0.68800       -3.38200
  C       -8.32600        1.64000       -1.33000
  C       -9.14600        2.78700       -2.11000
  C       -7.42900       -1.63100       -0.01500
  C       -5.89500       -1.40500        0.25800
  C       -5.00500       -2.19200       -0.66300
  O       -5.58400        0.05600        0.00400
  O       -5.87700        0.40300        2.24600
  C       -5.60300        0.71600        1.13600
  C       -5.24600        2.23600        0.76100
  C       -3.89200        2.67900        1.50000
  C       -2.72900        1.89000        1.00800
  C       -1.35000        2.28000        1.77200
  C       -0.14100        1.58700        1.20800
  C        1.07600        2.20200        2.03200
  C        2.39700        1.59900        1.31700
  C        3.61400        2.29500        2.16200
  C        4.91000        1.64700        1.36500
  C        6.03600        2.24700        2.19800
  C        7.44400        1.69200        1.50400
  O       -3.61500       -1.97800       -0.10400
  O       -2.81200       -3.09100       -1.83100
  C       -2.65100       -2.58100       -0.82000
  C       -1.32600       -1.99700       -0.09200
  C       -0.10400       -2.61500       -0.77900
  C        1.19400       -2.23000        0.06300
  C        2.35700       -2.67300       -0.69600
  C        3.65800       -2.19100        0.00300
  C        4.95900       -2.59700       -0.76400
  C        6.20000       -2.13600        0.05800
  C        7.46600       -2.52800       -0.79700
  C        8.67800       -2.12100        0.04400
  C        9.93700       -2.68700       -0.72200
  C       11.10700       -1.78000       -0.06900
  H       -7.97500        2.02800       -0.38500
  H       -7.48000        1.33200       -1.92900
  H       -8.48500        3.59200       -2.39300
  H       -9.61100        2.37600       -2.99300
  H       -8.03300       -0.93900        0.55500
  H       -7.72300       -2.64300        0.22600
  H       -5.26900       -3.24000       -0.64800
  H       -5.07300       -1.81900       -1.67500
  H       -5.11400        2.31900       -0.30800
  H       -6.05400        2.88100        1.07500
  H       -3.71200        3.72600        1.31100
  H       -4.00000        2.51900        2.56300
  H       -2.92800        0.84100        1.16600
  H       -2.60600        2.08100       -0.04900
  H       -1.20200        3.34700        1.69100
  H       -1.44900        2.00800        2.81300
  H       -0.20700        0.52000        1.35900
  H        1.06700        3.28000        1.97500
  H        2.43000        0.52400        1.40200
  H        3.59000        3.37200        2.08600
  H        4.90900        0.56700        1.40400
  H        5.99900        3.32600        2.16400
  H        7.49400        2.02400        0.46700
  H       -1.29800       -0.92200       -0.18800
  H       -0.16400       -3.68900       -0.81700
  H        1.23600       -1.16100        0.20900
  H        2.35900       -3.75200       -0.75200
  H        3.62700       -1.11500        0.08100
  H        4.98400       -3.66900       -0.88800
  H        6.17000       -1.06800        0.21300
  H        7.48100       -3.59100       -0.98500
  H        8.73800       -1.04500        0.12300
  H       10.08600       -3.73800       -0.52000
  H       11.13700       -1.94400        1.00800
  C        8.65200        2.24600        2.27900
  H        8.60400        1.91900        3.29800
  H        8.63600        3.31500        2.24500
  C        9.95400        1.73400        1.63700
  H        9.97200        0.66400        1.67000
  H       10.00300        2.06200        0.61900
  C       12.46300       -2.17000       -0.68400
  H       12.43500       -2.00900       -1.74200
  H       12.65900       -3.20200       -0.48500
  C       13.57600       -1.30900       -0.06200
  H       13.38100       -0.27500       -0.26000
  H       13.60600       -1.47100        0.99600
  C       14.93100       -1.70400       -0.67700
  H       14.90200       -1.54300       -1.73400
  H       15.12500       -2.73800       -0.48000
  C       16.04700       -0.84400       -0.05700
  H       16.07500       -1.00500        1.00200
  H       15.85200        0.18800       -0.25600
  H       16.98900       -1.11800       -0.48500
  C       11.16000        2.29300        2.41300
  H       11.14200        3.36200        2.38000
  H       11.11100        1.96800        3.43200
  C       12.46300        1.78300        1.77200
  H       12.51200        2.11000        0.75300
  H       12.48100        0.71400        1.80600
  H       13.30200        2.17100        2.31200
  C      -10.17200        4.77000       -1.11600
  H      -10.36900        5.15300       -2.09600
  H       -9.20800        5.09800       -0.79000
  H      -10.91800        5.12700       -0.43600
  C       -9.93100        2.76200        0.20400
  H       -8.96600        3.09200        0.53000
  H       -9.95400        1.69300        0.17900
  H      -10.67800        3.11800        0.88300
  C      -11.53500        2.83600       -1.59900
  H      -11.55800        1.76500       -1.62300
  H      -11.73100        3.22000       -2.57700
  H      -12.28300        3.19400       -0.92100
