45
sucrose.pdb
  C        0.78900       -0.36500        5.78600
  H        0.41500       -0.18100        4.75900
  C        2.12100       -1.15300        5.67100
  H        2.77300       -0.61700        4.95400
  C        2.84500       -1.23600        7.03300
  H        2.25400       -1.87400        7.72100
  C        3.02300        0.15700        7.67600
  H        3.73100        0.75200        7.06400
  C        1.66400        0.91000        7.75000
  H        1.01200        0.38000        8.47100
  C        1.79700        2.37000        8.21600
  H        2.36700        2.43400        9.16300
  H        0.79400        2.78400        8.43400
  O       -0.18100       -1.13400        6.54900
  O        1.88100       -2.47300        5.18600
 Ho        1.14000       -2.80700        5.70400
  O        4.12000       -1.83200        6.83400
 Ho        3.99900       -2.43400        6.09100
  O        3.56800       -0.03200        8.97700
 Ho        4.29900       -0.64400        8.84800
  O        1.02100        0.92100        6.43600
  O        2.42400        3.16100        7.20900
  H        2.05000        2.85200        6.37600
  C       -2.01400       -2.16800        5.34000
  H       -1.88600       -3.12800        5.87300
  H       -1.33100       -2.20900        4.47100
  C       -1.60500       -0.99400        6.25500
  C       -2.38200       -0.95600        7.59200
  H       -3.41200       -1.34200        7.45000
  C       -2.43000        0.53700        7.89300
  H       -1.46800        0.87400        8.33100
  C       -2.62700        1.13600        6.49600
  H       -3.70600        1.12000        6.24600
  C       -2.09500        2.57300        6.35200
  H       -1.00600        2.60000        6.54600
  H       -2.55700        3.23100        7.11300
  O       -3.36100       -2.04500        4.87300
  H       -3.44900       -1.14700        4.53300
  O       -1.73900       -1.66100        8.65400
 Ho       -0.79500       -1.53000        8.50800
  O       -3.51300        0.83600        8.76600
 Ho       -3.45200        0.19300        9.48100
  O       -1.93200        0.25400        5.59200
  O       -2.35600        3.08600        5.04600
  H       -3.28600        2.93300        4.86000
